Version 4.1
SHEET 1 880 808
WIRE 192 112 64 112
WIRE 448 112 304 112
WIRE 64 128 64 112
WIRE 448 128 448 112
WIRE 448 224 448 208
WIRE 64 256 64 208
WIRE 192 368 64 368
WIRE 448 368 304 368
WIRE 64 384 64 368
WIRE 448 384 448 368
WIRE 448 480 448 464
WIRE 64 512 64 464
WIRE 192 624 64 624
WIRE 448 624 304 624
WIRE 64 640 64 624
WIRE 448 640 448 624
WIRE 448 736 448 720
WIRE 64 768 64 720
FLAG 448 224 0
FLAG 64 256 0
FLAG 448 480 0
FLAG 64 512 0
FLAG 448 736 0
FLAG 64 768 0
FLAG 448 624 inverting
FLAG 448 368 non-inverting
FLAG 448 112 non-inverting-vfvi
SYMBOL voltage 64 112 R0
WINDOW 123 0 0 Left 0
WINDOW 39 0 0 Left 0
SYMATTR InstName V1
SYMATTR Value 10
SYMBOL noninvertingOpAmp_vfvi 240 112 R0
SYMATTR InstName X1
SYMATTR SpiceLine Gain=10
SYMBOL res 432 112 R0
SYMATTR InstName R1
SYMATTR Value 10
SYMBOL voltage 64 368 R0
WINDOW 123 0 0 Left 0
WINDOW 39 0 0 Left 0
SYMATTR InstName V2
SYMATTR Value 10
SYMBOL res 432 368 R0
SYMATTR InstName R2
SYMATTR Value 10
SYMBOL noninvertingOpAmp 240 368 R0
SYMATTR InstName X2
SYMATTR SpiceLine Gain=10
SYMBOL voltage 64 624 R0
WINDOW 123 0 0 Left 0
WINDOW 39 0 0 Left 0
SYMATTR InstName V3
SYMATTR Value 10
SYMBOL res 432 624 R0
SYMATTR InstName R3
SYMATTR Value 10
SYMBOL invertingOpAmp 240 624 R0
SYMATTR InstName X3
SYMATTR SpiceLine Gain=10
TEXT 24 792 Left 2 !.tran 1
TEXT 72 24 Left 2 ;1. Non-Inverting opamp remove Vinput
TEXT 56 304 Left 2 ;2. Non-Inverting opamp
TEXT 56 560 Left 2 ;3. Inverting opamp
