Version 4.1
SHEET 1 1176 680
WIRE 288 64 160 64
WIRE 480 64 368 64
WIRE 160 128 160 64
WIRE 480 128 480 64
WIRE 160 288 160 208
WIRE 480 288 480 208
FLAG 160 288 0
FLAG 480 288 0
FLAG 480 64 OUT
SYMBOL voltage 160 112 R0
WINDOW 123 24 124 Left 2
WINDOW 39 0 0 Left 2
SYMATTR Value2 AC 1
SYMATTR InstName Vin
SYMATTR Value SINE(1 1 25000)
SYMBOL ind 384 48 R90
WINDOW 0 5 56 VBottom 2
WINDOW 3 32 56 VTop 2
SYMATTR InstName L1
SYMATTR Value 100µ
SYMBOL res 464 112 R0
SYMATTR InstName R1
SYMATTR Value 1
TEXT 528 320 Left 2 !.ac dec 1000 10 100k
TEXT 200 -264 Left 4 ;RL low pass filter
TEXT 64 -216 Left 2 ;Notes:\n1) The inductor lets through all the constant voltage. \nIt lets through the DC offset in this case.\n \nDesign:\n1) Cut-off frequency is L/(2*pi*R) = 1.592kHz.\nAt cut off there is attenuation of -3 dB (by definition). \nThat is Vout = Vin/sqrt(2)
